8
frame 0 | Written by MDAnalysis XYZWriter (release 2.7.0)
       C    25.72808   27.10695   27.13495
       C    26.61208   26.98795   26.16195
       C    27.14108   25.56995   25.96895
       O    27.86707   25.18095   25.03995
       H    26.72207   24.85095   26.70395
       H    25.25508   28.01495   27.44595
       H    25.53107   26.28095   27.82195
       H    26.89108   27.75495   25.46995

